Version 4
SHEET 1 2024 848
WIRE 32 -240 -96 -240
WIRE 480 -240 32 -240
WIRE 1024 -240 480 -240
WIRE 480 -192 480 -240
WIRE 1024 -160 1024 -240
WIRE 480 -80 480 -112
WIRE 976 -16 912 -16
WIRE 1024 -16 1024 -80
WIRE 1024 -16 976 -16
WIRE 1104 -16 1024 -16
WIRE 1120 -16 1104 -16
WIRE 256 16 144 16
WIRE 608 16 256 16
WIRE -96 48 -96 -240
WIRE 256 48 256 16
WIRE 912 48 912 -16
WIRE 144 64 144 16
WIRE 608 80 608 16
WIRE 1024 128 1024 -16
WIRE 256 176 256 128
WIRE 352 176 256 176
WIRE 512 176 416 176
WIRE 704 176 512 176
WIRE 816 176 784 176
WIRE 912 176 912 128
WIRE 912 176 880 176
WIRE 944 176 912 176
WIRE 960 176 944 176
WIRE 32 192 32 -240
WIRE -240 240 -288 240
WIRE -208 240 -240 240
WIRE -96 240 -96 128
WIRE -96 240 -144 240
WIRE -64 240 -96 240
WIRE -32 240 -64 240
WIRE 256 288 256 176
WIRE 400 288 336 288
WIRE 512 288 512 176
WIRE 512 288 480 288
WIRE 608 288 608 144
WIRE 336 336 336 288
WIRE 336 336 304 336
WIRE 512 336 512 288
WIRE 560 336 512 336
WIRE 32 368 32 288
WIRE 144 368 144 128
WIRE 144 368 32 368
WIRE 1024 368 1024 224
WIRE -288 416 -288 240
WIRE 256 448 256 368
WIRE 352 448 256 448
WIRE 512 448 512 336
WIRE 512 448 416 448
WIRE -96 496 -96 240
WIRE 32 496 32 368
WIRE 256 496 256 448
WIRE 1024 496 1024 368
WIRE 608 512 608 368
WIRE -288 640 -288 496
WIRE -96 640 -96 576
WIRE 32 640 32 576
WIRE 256 640 256 576
WIRE 608 640 608 576
WIRE 1024 640 1024 576
FLAG 1024 640 0
FLAG 256 640 0
FLAG 608 640 0
FLAG -96 640 0
FLAG 32 640 0
FLAG -288 640 0
FLAG 480 -80 0
FLAG -240 240 in
FLAG 1024 368 e2
FLAG 976 -16 c2
FLAG 944 176 b2
FLAG -64 240 b1
FLAG 1104 -16 Output
SYMBOL npn -32 192 R0
SYMATTR InstName Q1
SYMATTR Value 2N3904
SYMBOL res -112 32 R0
SYMATTR InstName R1
SYMATTR Value 560k
SYMBOL res -112 480 R0
SYMATTR InstName R2
SYMATTR Value 470k
SYMBOL res 16 480 R0
SYMATTR InstName R3
SYMATTR Value 2.2k
SYMBOL res 240 32 R0
SYMATTR InstName R4
SYMATTR Value 12k
SYMBOL res 240 480 R0
SYMATTR InstName R5
SYMATTR Value 4.7k
SYMBOL res 384 304 R270
WINDOW 0 32 56 VTop 2
WINDOW 3 0 56 VBottom 2
SYMATTR InstName R6
SYMATTR Value 3.3k
SYMBOL cap 592 80 R0
SYMATTR InstName C2
SYMATTR Value 6.8n
SYMBOL cap 592 512 R0
SYMATTR InstName C3
SYMATTR Value 10n
SYMBOL cap 352 192 R270
WINDOW 0 32 32 VTop 2
WINDOW 3 0 32 VBottom 2
SYMATTR InstName C4
SYMATTR Value 10n
SYMBOL cap 352 464 R270
WINDOW 0 32 32 VTop 2
WINDOW 3 0 32 VBottom 2
SYMATTR InstName C5
SYMATTR Value 100n
SYMBOL npn 960 128 R0
SYMATTR InstName Q2
SYMATTR Value 2N3904
SYMBOL res 1008 -176 R0
SYMATTR InstName R7
SYMATTR Value 10k
SYMBOL res 896 32 R0
SYMATTR InstName R8
SYMATTR Value 2.7MEG
SYMBOL res 1008 480 R0
SYMATTR InstName R9
SYMATTR Value 2.2k
SYMBOL cap -208 256 R270
WINDOW 0 32 32 VTop 2
WINDOW 3 0 32 VBottom 2
SYMATTR InstName C8
SYMATTR Value 500n
SYMBOL voltage -288 400 R0
WINDOW 123 24 132 Left 2
WINDOW 39 24 160 Left 2
SYMATTR Value2 AC 1
SYMATTR InstName V1
SYMATTR Value 0
SYMBOL polcap 880 160 R90
WINDOW 0 0 32 VBottom 2
WINDOW 3 32 32 VTop 2
SYMATTR InstName C9
SYMATTR Value 10µ
SYMBOL polcap 128 128 M180
WINDOW 0 24 57 Left 2
WINDOW 3 24 8 Left 2
SYMATTR InstName C11
SYMATTR Value 10µ
SYMBOL Misc\\battery 480 -208 R0
SYMATTR InstName V2
SYMATTR Value 12
SYMBOL potentiometer 624 272 M0
WINDOW 0 75 35 Right 2
WINDOW 3 -6 60 Right 2
SYMATTR InstName P2
SYMATTR Value Rtot=47K wiper={w2}
SYMBOL potentiometer 240 272 R0
WINDOW 0 -42 45 Left 2
SYMATTR InstName P1
SYMATTR Value Rtot=47K wiper={w1}
SYMBOL res 688 192 R270
WINDOW 0 32 56 VTop 2
WINDOW 3 0 56 VBottom 2
SYMATTR InstName R13
SYMATTR Value 8.2k
TEXT 328 -16 Left 2 !.include potentiometer.sub
TEXT 136 -176 Left 2 !.ac dec 1000 20 20k
TEXT 624 408 Left 2 !.step param w1 0 1 0.5\n.step param w2 0 1 0.5
TEXT 184 288 Left 2 ;Bass
TEXT 528 280 Left 2 ;Treble
TEXT 136 -264 Left 2 ;P1 and P2 provide +/- 10 dB Bass/Treble tone control.
TEXT 96 688 Left 2 ;(3 X 3 potentiometer settings = 9 frequency response curves)
